/*--------------------------------*- C++ -*----------------------------------*\
| =========                 |                                                 |
| \\      /  F ield         | foam-extend: Open Source CFD                    |
|  \\    /   O peration     | Version:     3.1                                |
|   \\  /    A nd           | Web:         http://www.extend-project.de       |
|    \\/     M anipulation  |                                                 |
\*---------------------------------------------------------------------------*/
FoamFile
{
    version     2.0;
    format      ascii;
    class       dictionary;
    location    "constant/polyMesh";
    object      meshMetaDict;
}
// * * * * * * * * * * * * * * * * * * * * * * * * * * * * * * * * * * * * * //

surfaceFile     "tibmesh_8pl2.stl";

surfaceMeta
{
    nPoints         18095;
    nFacets         36186;
    nPatches        3;
    nFeatureEdges   0;
    patches
    {
        TIBIA
        {
            type            empty;
            nFacets         31708;
        }
        TIBIATTACH
        {
            type            empty;
            nFacets         3342;
        }
        TIBIALOAD
        {
            type            empty;
            nFacets         1136;
        }
    }
    pointSubsets
    {
    }
    facetSubsets
    {
    }
    featureEdgeSubsets
    {
    }
}
